AdsAsPortsCorp.com
AdsAthome.com
AdsAyus.com
AdsBuyingNetwork.com
AdsByiSocket.com
AdsCulinarySchoolsOk.com
AdsDanang.com
AdsErvMx.com
AdsForPeople.com
AdsInmob.com
AdsPostLink.com
AdsRec.com
AdsSketches.com
AdsTerritory.com
AdsWonder.com
AdtuulOs.com
Aducs.com
AdultForceSucks.com
AdultGamerDating.com
AdultMob.com
AdultModelJunction.com
AdultPibge.com
AdultsExcite.com
AdultsMoke.com
AdultsTarterSGuitar.com
AdvCrypto.com
AdvIndus.com
AdvMake.com
AdvOgAdoAg.com
AdvScuba.com
AdvanceAt.com
AdvanceInspections.com
AdvanceInterested.com
AdvanceProAccounting.com
Advanced-Paddles.com
Advanced-Transmissions.com
AdvancedAccountingAZ.com
AdvancedAirSpecialistOkc.com
AdvancedAnimalPerformance.com
AdvancedDesignCostarica.com
AdvancedEuropeanCivilization.com
AdvancedGolfcarts.com
AdvancedHealthX.com
AdvancedInsured.com
AdvancedInteriorZ.com
AdvancedMarketingGroupInc.com
AdvancedPlanningAdvisors.com
AdvancedSecurityAndControls.com
AdvancedSecurityGroupUk.com
AdvancedSportsMed.com
AdvancedStructuresInc.com
AdvancedVote.com
AdvancedenTalcaRepro.com
Advanceielts.com
AdvantageemR.com
AdvencedHr.com
AdvenfAmitRip.com
AdventCalendarPromo.com
AdventOrGlobal.com
Adventure-Venture.com
AdventureAndSport.com
AdventureEscapesMagazine.com
AdventureEverydayFamily.com
AdventureHunds.com
AdventureSportsUk.com
AdventuresWithAnimals.com
AdvertIzia.com
AdvertOria.com
AdvertiseClassified.com
AdvertiseYellow.com
AdvertisementPromo.com
AdvertisementSearch.com
Advertising-Express.com
AdvertisingAlison.com
AdvertisingPhotographerIceland.com
AdviceStand.com
AdvikLogistics.com
AdviseGuy.com
AdviserEliaBullWealth.com
AdvisorFace.com
AdvisorFocusedSolutions.com
AdvisoryTechnology.com
Advpe.com
AdvtuRx.com
AdyzyblackFriday.com
AdzEnse.com
AdzStar.com
AeDigitalTek.com
AeLawOffice.com
Aeasc.com
AebgTeam.com
Aebpu.com
AecApis.com
AecGlobe.com
AecKompresoru.com
AecMarketer.com
AedTradingInc.com
Aeeek.com
Aeers.com
AegBackgrounds.com
Aegea-Energetics.com
AegeaEnergetics.com
AegeanVoice.com
AegisBiz.com
AeigIsAL.com
AeirthWellness.com
AejbAnd.com
AekadhIk.com
AeliaOfficialBand.com
AelixYr.com
AeoimageproduccIones.com
AeonAvalanche.com
AerTaxi.com
AerialRetreats.com
AeroBiks.com
AeroBolivar.com
AeroDynaMc.com
AeroFlaxIndia.com
AeroGomMeuse-Distribution.com
AeroMedInnovate.com
AeroVisionPro.com
Aesthetic-Channel.com
Aetdy.com
AevaPrime.com
AexaAndElen.com
Aexpit.com
AfCcaykahve.com
AfCteaCoffee.com
AfDesignInc.com
AfFilaNiche.com
AfFishAre.com
AfIliacionesospif.com
AfIliadoxtremo.com
AfIrmaTecnoLogia.com
AfLamaOnline.com
AfShanAzad.com
AfShanValAni.com
AfTabAK.com
AfTabAhmedWorks.com
AfZetBand.com
Afajitu.com
AfanahGroup.com
AfcCoffeeTea.com
AfcTheatercompany.com
AfckahveCay.com
Afcnn.com
Afdbd.com
AfdlInsHauki.com
Afectados-hipotecamultiDivisa.com
Affacturage-credit-tresorErie.com
Affair-Mark.com
Affair-Test.com
Affaires-l.com
AffiLateWhiz.com
AffichAgedEsecuRite.com
Affiliate-Hustlers.com
AffiliateAuthorityPros.com
AffiliateMsi.com
AffiliateNewB.com
AffiliatedTechno.com
Affinity-LuxuryCondo-Sg.com
AffinityCrmProd.com
AffinityCrmTest.com
AffinityShoes.com
AffordLegalHelp.com
AffordableChristianProducts.com
AffordableCollisonCenter.com
AffordableFashionsAccessories.com
AffordableFla.com
AffordableGasGrill.com
AffordableLuxuryGifts.com
AffordableNecessity.com
AffordableOnlinePresence.com
AffordablePropertiesPh.com
AffordableSidingSolutions.com
AffordableVisionCareInsurance.com
AffordableWave.com
Afghanistan-Online.com
AfglEnders.com
AfiCulinaryTour.com
AfiVineLtd.com
AfitStore.com
Aflay.com
Aflyo.com
Aforcli.com
AforeXCollege.com
AfpCars.com
Aframomum.com
AfranoJan.com
AfratejaratkarIman.com
AfresherYou.com
Afrexia.com
Afri-Payments.com
AfriDanSe.com
AfriDanSeActivewear.com
AfriPaca.com
AfricSoftNet.com
AfricaAiInstitute.com
AfricaBlockChainForum.com
AfricaCouples.com
AfricaDeMic.com
AfricaEnergyWaste.com
AfricaFoundry.com
AfricaIterations.com
AfricaPilgrimage.com
AfricaStarChannel.com
AfricaStarTV.com
AfricaTravelAdvice.com
AfricanCouples.com
AfricanNewsPostcolonialPointofview.com
AfricanOnlineTradeFairAndExhibition.com
AfrikTendance.com
AfrimBer.com
AfroAdoption.com
AfroBallisticSports.com
AfroCouples.com
AfroDiteSalonOrchestra.com
AfroLisa.com
AfroPolitAnLife.com
AfroWok.com
Aftab-Limo-Service.com
AfterCentral.com
AfterLense.com
AfterPainting.com
AfterhoursLabel.com
AftershaveReviews.com
Ag-Ess.com
Ag-laoGe.com
AgArdenOfHealth.com
AgBrushes.com
AgEraTil.com
AgFishHomePublishingcompany.com
AgIchIpay.com
AgKrugGer.com
AgLandTuning.com
AgOlliNyFashionBlog.com
AgOralBe.com
AgPacaOayan.com
AgRandReflection.com
AgRantCooling.com
AgRicoNcs.com
AgRiteCh-Conference.com
AgRomaQuinAriasVilla.com
AgRowNepal.com
AgShoe.com
Aga-Wallstreet.com
AgaberTransportes.com
AgacaYak.com
AgamverMA.com
AgapeHealthcareWellness.com
AgapeKidZCouture.com
AgapesDa.com
AgarImoSpanish.com
AgarwalMoversKolkata.com
AgarwalPackersJaipur.com
AgatheRingOfDistillers.com
AgatheRingOfWinemakers.com
AgatheRingofdistillerspgh.com
AgatheRingofwinemakerspgh.com
Age-Spots.com
AgeAndWageInitiative.com
AgeApparelID.com
AgeDiverse.com
AgeOfUniverse.com
AgeTimesEurope.com
AgecoInc.com
AgedPan.com
AgeingReversal.com
AgelessInaMinute.com
AgelessVoyagers.com
Agen-Ukm.com
AgenBigenMi.com
AgenCe-ipBs.com
AgenCeOlympe.com
AgenCeimmobiliereaude.com
AgenCeipubFrance.com
AgenCiaMarquez.com
AgenCiacraf.com
AgenCiaekbAllo.com
AgenCiasaRu.com
AgencyGu.com
AgencyRpo.com
Agent-Ubezpieczenia.com
AgentAndi.com
AgentChrome.com
AgentEasy.com
AgentsEnergy.com
AgentsHarePoint.com
AgesOfBeauty.com
AggregateMySearch.com
AggregateYourSearch.com
AggroupCo.com
AghCourier.com
AgiftiNneed.com
AgileNtQuickProbe.com
AgileProjectControlling.com
AgileTechPartner.com
AgileValueManagementOffice.com
AgileedUvAtion.com
AgingCareExpert.com
AgingCareExperts.com
AgiosGsds.com
AglLosangeles.com
Aglaia-AR.com
AglaiaGarment.com
AgnesBodi.com
AgnesBudlewsKa.com
AgnesDeScamps-Shop.com
AgniGames.com
AgniesZkabudyn.com
AgnoHemp.com
AgoOdTrailer.com
AgoraCasa.com
AgoraDivine.com
AgoreLick.com
AgostoContracting.com
AgourahillsVideoProduction.com
AgrLocalNet.com
AgrariaShopPisa.com
AgreatHairDayStudio.com
AgreatHigh.com
Agri-Seal.com
Agri-bois-environnement.com
AgriFacilitator.com
AgriFluence.com
AgriProm-Algerie.com
AgriSpatial.com
AgricLola-Trading.com
AgricoleTradingNV.com
AgricultureDefinition.com
AgricultureUniversities.com
AgriculturestIps.com
AgrinInMarkalaRI.com
AgriuEle.com
Agro-Ok.com
AgroDataPortal.com
AgroEmmen.com
Agron-Medical.com
Agron-Qsd.com
AgrumiNaturalI.com
Ags-Sports.com
AgsConstructionCA.com
AgsDigitals.com
AgsFilo.com
AgsSocial.com
AgtechLicensing.com
Agted.com
AgtlAndAds.com
AgtraxMan.com
AguaFriaRanchHumboldt.com
AguaNano.com
AguaPeAlagoas.com
AguaSantaFilms.com
AguaesLife.com
AguerObieNesraIces.com
AgutiUsa.com
AgwNet.com
AgzimyAndi.com
AhArtClubLambs.com
AhMetSunAL.com
AhOrrarmasycomprarmejor.com
AhSkys.com
AhTabriz.com
AhWLls.com
Aha-Tutorial.com
AhabBowen.com
AhabRo.com
Ahbmsy.com
Ahbwqd.com
Ahdcn.com
Ahdeshi.com
AhdgbfJ.com
AhdxoDesigns.com
AheadOfTheBuzz.com
AhebDo.com
AhenKsItEsi.com
AhernEquipmentRentals.com
AhernMurfreesboro.com
AhernTennessee.com
Ahffcl.com
Ahhcha.com
Ahhxny.com
AhirimoKey.com
AhjMinistries.com
AhlInstitute.com
Ahlyj.com
AhmadGomaa.com
AhmadIsMail.com
AhmadKool.com
AhmedAlbaZzaz.com
AhmetogUllaRI.com
AhoooAn.com
AhorroencasalibrededeUdas.com
AhriyuePvc.com
AhryCar.com
AhshuiLi.com
AhslzPw.com
AhtianKun.com
AhweIran.com
Ahwxcl.com
Ahxbs.com
Ahxsjt.com
Ahxybs.com
AhydspT.com
Ahyfsm.com
AhyueHan.com
Ai-Distillery.com
AiAutoAi.com
AiBitCoinCash.com
AiBnle.com
AiBrainData.com
AiBuyW.com
AiChongYz.com
AiClothiers.com
AiConist.com
AiConsultingAfrica.com
AiDefenseTech.com
AiEhive.com
AiForumAfrica.com
AiGuche.com
AiGues-Vives.com
AiLimaF.com
AiMulti.com
AiNiPeixUn.com
AiPianMen.com
AiPinDuoduo.com
AiPingHui.com
AiQuanShuo.com
AiQyfw.com
AiRobotCoffee.com
AiSaer.com
AiShangBangBang.com
AiShangZiyou.com
AiSwag.com
AiTechnologyConsultants.com
AiToUnian.com
AiWorldPay.com
AiWozhonghuahuzhu.com
AiXindiNg.com
AiZaiyantu.com
Aiafi.com
AiaiPink.com
AiaitieWin.com
Aianec.com
Aiceke.com
AiciFlorida.com
AidCounsel.com
AidMadagascar.com
AidTrained.com
AidaCubaNo.com
AidanGowLand.com
AideHenji.com
AidenHvacMechanical.com
AidesForDailyLiving.com
AidigOu.com
AidsWalkWashington.com
AiecoGroup.com
AiecoInc.com
AiecoLlc.com
AienAristEyeIn.com
AiesCentSatIons.com
Aifid.com
Aigima.com
Aihmr.com
Aiikim.com
AijiAdingZhi.com
Aijujz.com
AikElian.com
Aikahd.com
Aikayy.com
AiknooRcArt.com
AikonFire.com
AikonTV.com
AilImm.com
Ailbx.com
AilePin.com
AileenCreationCouture.com
Ailke.com
Ailne.com
AimRents.com
AimSkyNoWartDesign.com
AimcInternational.com
AimeeAndshakthi.com
AimerLamoux.com
AimumiYu.com
AinDragUi.com
AinerKotha.com
AinsleyEarhartBooks.com
Aio-Entertainment.com
AioCollege.com
Aiosr.com
AipacRadio.com
AiplmyS.com
AiqrCurrency.com
Aiqrcy.com
Air-Bi.com
Air-TenNa.com
AirAndGroundVideos.com
AirBch.com
AirBitCoinCash.com
AirBlocs.com
AirBnbFormula.com
AirBnbHostTips.com
AirBnbListings.com
AirComChina.com
AirCoolerVsAirconditioner.com
AirDreess.com
AirGommeco.com
AirGreenUsa.com
AirIkco.com
AirInesCo.com
AirIsU-saron.com
AirJns.com
AirJordanForsaleUs.com
AirMoreupTempoSale.com
AirPaxPillows.com
AirPhotoByMarco.com
AirPolitics.com
AirPurifierGuard.com
AirQualServices.com
AirReClub.com
AirStuttgart.com
AirTec-tr.com
AirTherapyForVets.com
AirTivi.com
AirUcut.com
AirVacs.com
AirWez.com
AirZoneOzone.com
AirboatAhOlIc.com
AirboatAholics.com
AirborneLlc.com
AirborneNgineer.com
AirborneUnmanned.com
AirborneWayfarer.com
AirbrushAtlanta.com
AirbusBitCoin.com
AirbusCryptoCurrency.com
AirbusDsComm.com
AirbusetHereUm.com
AircompressorWarehouse.com
AirdropShop.com
AireClick.com
AireMarketingDigital.com
AiredaleBlinds.com
AirforceAchievements.com
AirleNce.com
AirleRd.com
AirportLogan.com
AirportParkingHq.com
AirportSecurityTrainingAids.com
AirsVideoMarketing.com
AirsWave.com
AirsoftCorner.com
AirsoftVarna.com
AisEqing.com
AisForAlgorithm.com
AisYaHFashionMoslem.com
AisamiJuice.com
Aisefu.com
AishaAnnHakim.com
AishenDu.com
Aisuso.com
AitchGruop.com
AitecdOBrasil.com
Aiwbao.com
Aiwcy.com
AiwePay.com
AixiaObi.com
Aixjk.com
AixuaNtu.com
Aixzj.com
Aiyahua.com
Aiyko.com
AizaiguxiAng.com
AizheSen.com
AizheSi.com
Aizxm.com
Aj-Ok.com
AjAstone.com
AjAychaudhary.com
AjBeautyAndTraining.com
Ajai-Llc.com
AjarofSweets.com
AjaxDom.com
AjayGoldman.com
AjayHomes.com
AjaybabuSalon.com
AjedrezlAndia.com
AjeeT-SingH.com
AjetDrains.com
Ajftc.com
AjinkYakamBe.com
AjinomOtoFood.com
AjjaHealth.com
AjkSocial.com
AjkerSell.com
AjmaLindo.com
AjpPublicrelations.com
AjsArt.com
AjslawNandLand.com
AjssConstruction.com
Ajst-Shirts.com
AjstShirts.com
Ak-Bank-Online.com
Aka-j.com
AkaMbs.com
AkaaRoteCh.com
AkademiKebaHagiaAn.com
AkalaStudio.com
AkanAkan.com
AkanKshaBuilders.com
AkasBaliTrekKing.com
AkashaLand.com
AkbankcekilisbireySel.com
AkbarPulsa.com
AkcanOfficial.com
AkeTec.com
AkedArvin.com
AkeeNi.com
AkekaLukSiam.com
AkersVeienlegekontor.com
AkhIlbharatiyavaishsamaj.com
Akhci.com
Aki-Shop.com
AkikagUmi.com
AkillIkAntin.com
AkinDoo.com
AkinMed.com
AkitSolution.com
AkitaLima.com
AkkaCompany.com
AklimdakifirSat.com
AkornTreeService.com
AkpsiuArkCorp.com
Akq-tech.com
AkrilikcamihaliLari.com
AkrisDesign.com
AkronHeroes.com
Aks-Cctv.com
AksAhinlergrup.com
AksEhirotocikma.com
AksHayaRegalia.com
AksMinistryOfJustice.com
AksarayDpftemizligi.com
Akscp.com
AkscyZx.com
Aksib.com
AksoyTaner.com
Aksus-Office.com
Aktisa.com
AktivGames.com
AktiveArk.com
AktuElleFonds.com
AkuDropShip.com
AkuRanaBiz.com
AkuYeLIk.com
AkuammAseed.com
AkukiraLik.com
Akyora.com
AkyuzotokiraLama.com
Al-Amani.com
Al-MasDar.com
Al-huLuScientificAdvertisements.com
Al-maSi.com
Al-tadAmun.com
AlaBioPharm.com
AlaChemicals.com
AlaGrosseBobine.com
AlaKamanPost.com
AlaManiFoodIndustries.com
AlaManiFoods.com
AlaTurkA-Catering.com
AlabamaDeerBreeders.com
AlabamaNationalFair.com
AlabamaWeekend.com
AladiYa.com
AlaiaProductions.com
AlainCatel-conseil.com
AlakaRemRestaurant.com
AlakahVe.com
AlamNow.com
AlamanceRoofing.com
AlamedaMortgages.com
AlamjAdPetro.com
AlanCooke.com
AlanFreedTheMoondog.com
AlanGuageArticle.com
AlanWilsonInvestigation.com
AlanaBryant.com
AlanderAmos.com
AlangShouji.com
AlaniTravel.com
AlannaFalys.com
AlansonMichigan.com
AlanticCellars.com
AlanyaCelikElektronIk.com
AlanyaEvKiraLama.com
AlaocIA.com
AlaqsHabIntAro.com
AlaresTo.com
Alarm-Way.com
AlaskaStud.com
AlastairWilsonAudio.com
AlaucOm.com
AlayaZoTel.com
AlayoContraTistas.com
Alb-Land.com
AlbEsure.com
AlbaHrZanzibar.com
AlbaSmithWedding.com
AlbanyFurnitureRepair.com
AlbanyShredding.com
AlbatrossBc.com
AlbayItaly.com
AlbenSon.com
AlbergoRistorAnteMilano.com
AlbertFray.com
AlbertGoFast.com
AlbertTalks.com
AlbertVisSer.com
AlbertaFireTables.com
AlbertaMaysRestaurant.com
AlbertaMazon.com
AlbertaWade.com
AlbertoMilan.com
AlbertoMozo.com
AlbiLescomunicacion.com
AlborGhettoDavolI.com
Albtp.com
AlbumLaguBaru.com
AlbumVivo.com
AlcAutoSolutions.com
AlcAutomotive.com
AlcAutoparts.com
AlcalAAndaAssociates.com
AlcantaraAutoGroup.com
AlceaN.com
AlchemyConstructionNJ.com
AlchemyGirl.com
AlchemyStcbd.com
AlciMarBarros.com
AlcideSnAmador.com
AlcoSweet.com
AlcoholBan.com
AlcoholRehabScottsdale.com
AlconSmartLens.com
AlcosRl.com
AldHealth.com
AldSpeech.com
AldeaGrande.com
AldeaHabitOs.com
AldonLloydAssociate.com
AleHus.com
AleNino.com
AleShiasChillerArt.com
AleaCionesparajoyeria.com
Alec-Metro.com
AlecDiab.com
AleccHn.com
AleecYn.com
AlegraLopez.com
AlegrePrimavera.com
AleiFunCiona.com
AleisHir.com
AlejandroCarrizo.com
AlejandroWebsite.com
AlekosDaimon.com
AleksandrAwAlas.com
AleksiscaughmanModeling.com
AlemCafeM.com
Alena-Holidays.com
Alena-Property.com
AlenoWicz.com
AleoChronA.com
AlepRex.com
AlephGallery.com
AlertAscitIbanAmex.com
AlertGifts.com
AlertLookup.com
AlessandraAndChristopher.com
AlessandroMercaTi.com
AlessandroPeluso.com
AleuraNthropy.com
AlevelPhilosophy.com
Alex-Giordano.com
Alex-KartAsh.com
Alex-MansIlla.com
Alex-Now.com
Alex-Zelentsov-cv.com
AlexAbby.com
AlexAdelaRosa.com
AlexAnDaniCoupons.com
AlexAquaFoods.com
AlexAveLino.com
AlexEcoHosting.com
AlexKLett.com
AlexLiGay.com
AlexMaiLady.com
AlexMaple.com
AlexMinicozzi.com
AlexPlanck.com
AlexRyanRoundTree.com
AlexVee.com
AlexWandd.com
AlexaAnnBoutique.com
AlexanderLovell.com
AlexanderiOnIdes.com
AlexandersJewels.com
AlexandrAbAllensWeig.com
AlexandraJohnstone.com
AlexandraStephenson.com
AlexandraWilliam.com
AlexandriaSheaDesigns.com
AlexandriaWeightLossCenter.com
Alexi-PrataMA.com
Alexia-SeBastiAo.com
AlexisSalem.com
Alf-elAb.com
Alf-elAbs.com
AlfaDySerStore.com
AlfaGoldAudio.com
AlfaLumber.com
AlfaNest.com
AlfaRomeoOfSeaside.com
AlfaRomeoUsaOfMonterey.com
AlfieLab.com
AlfieLabs.com
AlfonsOgpugh.com
AlfonsoZArranZ.com
AlfredoGoLiver.com
AlfrescoWigan.com
AlfrisCapital.com
AlgaeYoSunOzu.com
AlgarveFit.com
AlgebraBaldOr.com
AlgerDirect.com
AlgeriaVision.com
AlghameHShop.com
AlghoZali.com
AlgieKe.com
AlgoBooster.com
AlgorOman.com
AlgorTrading.com
AlgosPhErin.com
AlhaensGen.com
AlhambraAttorneys.com
AlhiDayAhStore.com
Alhyah.com
AliAnzaFinancierAMexicana.com
AliBestStore.com
AliCloudXx.com
AliExpressRossiya.com
AliExpressUkrayina.com
AliGets.com
AliHomeopathicClinic.com
AliOnlineStore.com
AliPayPay.com
AliSnaps.com
AliUke.com
AliVietUsa.com
AlibAugTerracotta.com
AlibabaVietnams.com
AlibabasInglesDay.com
AlibabasUite.com
Alice-Nguyen.com
AliceDraws.com
AliceGoingPlaces.com
AlicewalkersGardens.com
AliciaGordon.com
AliciaSalazarFitness.com
AliciaSophiasHealth.com
AlidadeInc.com
AlieMrEtaSkin.com
AliefLove.com
AlienFaces.com
AlienPaintball.com
AliensCostume.com
Alierix.com
AlifeComplete.com
AlifeIn.com
AlifeInsuranceRush.com
AlifeOfDiscipline.com
AlignAndExpandCoaching.com
AlignManAgment.com
AlignerDoctors.com
AlignmentPersonalcare.com
AlinaClough.com
AlineAProperties.com
AlineMuniZepOrtFolio.com
AlinhAdotuA.com
AliozBa.com
AlipaYrs.com
AlirezAsamei.com
AlishaHlavi.com
AlisonDart.com
AlisonThiago.com
AlisonWorthenPhotography.com
AlistAlis.com
AlistairMarr.com
AliteWeb.com
AlittleGourmetEveryday.com
AlittleSideways.com
AliveAndSober.com
AliveMultimedia.com
AlivioMD.com
AlivioRx.com
AliwebTV.com
AliyaThon.com
AliyeKi.com
AlizTrade.com
AljamiasuffatulislamgrandMosque.com
AljarAfetv.com
AljassMitraDing.com
Aljdaq.com
AljfpX.com
Alk-Mann.com
AlkaZaneMlak.com
AlkaidSeven.com
AlkayAtaRiders.com
AlkoutFoods.com
Alkuhol.com
All-Bucharest-Hotels.com
All-Budget-Hotels-Delhi.com
All-Jackpot-Casino.com
All-JackpotCasino.com
All-JackpotsCasino.com
All-Psychic-Chat.com
All-Refresh.com
All-Slot-Casino.com
All-Slot.com
All-SlotCasino.com
All-SlotsCasino.com
AllAbbott.com
AllAboutElectricCo.com
AllAboutFiction.com
AllAboutGreenJuice.com
AllAboutKleeNing.com
AllAboutNaturalStone.com
AllAboutOktoberfest.com
AllAboutPerfumery.com
AllAboutSprouts.com
AllAboutThatGlaze.com
AllAboutWeaves.com
AllAboutsOx.com
AllAdIncorp.com
AllAeroConsulting.com
AllAlapa.com
AllAmericanIngenuity.com
AllAneGas.com
AllAround-Photo.com
AllBdResult.com
AllBeacons.com
AllBestCampingGuide.com
AllBestReviews.com
AllBirdStreetOpper.com
AllBlackFridays.com
AllBluer.com
AllBrainStein.com
AllCanadianLogWorks.com
AllCashOrMoney.com
AllCashOrMoneyAll.com
AllChristiansToday.com
AllCoinWallets.com
AllDani.com
AllDimensionsFreight.com
AllDiyProjects.com
AllEntertainmentWeekly.com
AllEverybody.com
AllFinews.com
AllFlash-NoCash.com
AllForAllsStore.com
AllForTheWorld.com
AllFromjs.com
AllGahyqtwoeipw.com
AllGuda.com
AllHailTheMighty.com
AllIancz-Intl.com
AllIanzCareers.com
AllIanzKariYer.com
AllIanzesC.com
AllIdoisWinn.com
AllIed-AsphaltPaving.com
AllIgoClassified.com
AllInclusiveCheapHolidays.com
AllInoneBiz.com
AllInoneEnterprises.com
AllInoneImage.com
AllInoneWork.com
AllInsuranceNews.com
AllIoddi.com
AllIsoNandMattsWedding.com
AllLatestEntertainment.com
AllManageSchools.com
AllManagementMeaning.com
AllMazingDeals.com
AllMedicinal.com
AllMonolithic.com
AllMovieApps.com
AllMyDiaries.com
AllMyDomainsWeRetaken.com
AllMyands.com
AllNcertNotes.com
AllNewBundles.com
AllNiceTools.com
AllOvipTaxi.com
AllPcMouseReview.com
AllPhillyLawyer.com
AllPointsBrew.com
AllPointsPropertyAssociates.com
AllPortableGenerators.com
AllProBrickRepair.com
AllPurposeDetailing.com
AllPurposeMobileDetailing.com
AllQuickLoan.com
AllRawDogfood.com
AllRibbonsBall.com
AllSaintsManorJohndeere.com
AllSeasons-Events.com
AllSeasonsMiniStorage.com
AllSgProperty.com
AllShipsRise.com
AllSportsAutographs.com
AllSportsNewsAndUpdates.com
AllStarMomAffiliate.com
AllStatEb.com
AllStemsTech.com
AllStemsTechnology.com
AllTapesAndCords.com
AllTecqLobal.com
AllThaiCoupon.com
AllTheCrumbs.com
AllTheDepots.com
AllTheHugs.com
AllTheLovelyExtremists.com
AllTheWriteThings.com
AllThingShaleEma.com
AllThingSv.com
AllThingsHomeRemodeling.com
AllThingsTangle.com
AllThingsYourHome.com
AllTickt.com
AllTimeDiscount.com
AllToolReviews.com
AllVegasHouses.com
AllVestor.com
AllWedoisWinn.com
AllWorksForgood.com
AllYeser.com
AllYourPaintingNeeds.com
AllYpAllyAlly.com
AllZoRted.com
AllZorts.com
Alla-k.com
AllaCciateviilgrembiule.com
AllanAngus.com
AllanMann.com
Alle-Speisekarten.com
AlleaBlue.com
AllegraColussi.com
AllenBradleyProgrammer.com
AlleppeyCreekHomestay.com
AllerVex.com
AllergenUtensils.com
AllergyAndAsthmaOfJoliet.com
AllesOfNicks.com
AlliFierce.com
Alliance-Canada.com
AllianceFootballZone.com
AllianceGinEries.com
AllianceIqConsulting.com
AllianceOfInternationalAromaTherapists.com
AlliancePlasticsCanada.com
AlliancePokerPass.com
AllieHertz.com
AllieKrings.com
AlliedCorpFurniture.com
AlliedTechIndustries.com
AlliedTransitExpress.com
AlliesThirst.com
Alliesinenergy.com
Allin-Casino.com
Allin-Game.com
AllisonFierce.com
AllisonRinaRd.com
AllisonRosefindyoursweetspot.com
AllisonsPortfolio.com
AlloEntertainmentBook.com
AlloSky.com
AllonGpLusSize.com
AlloverEarthTravel.com
AlloyGatorDorset.com
AllredNation.com
Allround-Crew.com
AllstateBands.com
AlltheproductsoftheWorld.com
Allure-My-True-Essence.com
AllureBookclub.com
AllureDeChien.com
AllureImoveis.com
AllyBidder.com
AllyBurnett.com
AllyMoonTrading.com
AllysPeaks.com
Alma-Finance.com
AlmaBeautyAndWellness.com
AlmaJdExchange.com
AlmaShad.com
AlmaZBay.com
AlmadenFamilyPhysicians.com
AlmasEnevolucion.com
Almdr.com
AlmkTransport.com
AlmostFamousDj.com
AlmostFantasy.com
AlmostToastPodcast.com
Almu-Consulting.com
AlnayEli.com
AlnwickCottageHolidays.com
Alo-bePors.com
AloFiber.com
AloLas.com
AloMersin.com
AloPutAria.com
AloWalks.com
Alocf.com
AloeApparel.com
AloeNaturesPA.com
AloeSusan.com
AloemAeBeauty.com
AloeveraAboNelIk.com
AlogaWeddings.com
AlohaBerry.com
AlohaBot.com
AlohaCalendar.com
AlohaLawnCareBellingham.com
AloisKoch.com
AlonDavid.com
AloneNotKnown.com
AlonsHnAider.com
AloomoFoneSown.com
AlorsBouge.com
AlotOfAlots.com
AlotUixach.com
AlpChiQue.com
AlpEstates.com
AlpIfferaiomagico.com
AlpTurket.com
AlpacaGadgets.com
AlpatAgrup.com
Alpen-Max.com
Alpha-Mep.com
AlphaAccessorIEz.com
AlphaBeo.com
AlphaBioChile.com
AlphaFever.com
AlphaHedgedSolutions.com
AlphaHedgedStrategies.com
AlphaInterviewPrep.com
AlphaInvestmentSolutions.com
AlphaLockAndKey.com
AlphaMedian.com
AlphaOmegaCompany.com
AlphaPhotographyStore.com
AlphaPlusMale.com
AlphaRealest.com
AlphaReward.com
AlphaSpecGuarding.com
AlphaTwitter.com
AlphaWeave.com
Alphyl.com
AlpineArtsFoundation.com
AlpineConfidential.com
AlpineSkiAndGolf.com
AlppLaw.com
Alps-Uae.com
AlptecGlobal.com
AlquilerdecardiodesfibriladoresDea.com
AlricLeder.com
AlrkoBa.com
Als-France.com
Als-Lb.com
AlsAfwa-Sa.com
AlsAniyaWorld.com
AlsArhksa.com
AlsGatorAlley.com
AlsPizzaItalia.com
AlsRichmondTanningAndTraining.com
AlsTerniNdo.com
AlsaLandscaping.com
AlsabooQEquestrian.com
Alsace-Depot.com
Alsace-Rencontres.com
Alsace-TravAux.com
AlsaceVintage.com
Alsaqy.com
AlsiInversionesRd.com
Alsnh.com
AlsoyGroup.com
Alt-Up.com
AltAddis.com
AltAireDeleon.com
AltCoinGate.com
AltCoinLoans.com
AltCoinQuebec.com
AltEcpe.com
AltEducationList.com
AltEmpus.com
AltErnaTimed.com
AltExCleaning.com
AltHammer-It.com
AltIfyme.com
AltImax-Inc.com
AltPcX.com
AltR-ego.com
AltRaAbrasive.com
AltRaTesting.com
AltRuCoseInc.com
AltUnaYavizE.com
AltUrNetworks.com
AltYaZilixXx.com
AltaGest.com
AltaLimited.com
AltaSolarProject.com
AltaSotoHurda.com
Altai-Rally.com
AltaiRally.com
AltairIanMarkets.com
AltajStud.com
AltaqwaonlinequranAcademy.com
AltavistaTechnicalServices.com
AltenPfLegeHilfe.com
Alter-Shift.com
AlterMuseo.com
AlterationsByJackie.com
AlteredAvocado.com
AlteredPolitics.com
AlteretCompagnie.com
AlternateHeadlines.com
AlternativeAdults.com
AlternativeInStagRess.com
AltersPero.com
AltersVorsorgeleichtgemacht.com
Altgm.com
AlthaFf.com
AltinBeBekkiBris.com
AltiusReviews.com
AltoUsInc.com
AltonDeaneryCatholics.com
AltsSignal.com
AltugRentAcar.com
AltunAyAydinLatma.com
Alu-FrostaLuFrost.com
AluCoones.com
AlubLanes.com
AludeKa.com
AlufeyBrioTet.com
AluguEresGaliza.com
AlugueimovEis.com
AlulaSport.com
AlulaSwerk.com
AluminIosParaiso.com
AluminYumsistemleri.com
AluminYumtekne.com
AluminiumCore.com
AlunniBalilla.com
AlurkaRya.com
AlusimuYe.com
AlutaMarket.com
AlvHerTrucking.com
AlvaMart.com
AlvaedUcacion.com
AlvanPlast.com
AlvarRari.com
AlvaroPena.com
AlvaroPerezKattAR.com
AlvinChanPhoto.com
AlvinTorontoMixer.com
AlvisDesign.com
AlwaFatFonds.com
AlwalIdBinTalal.com
Always-Be-Closing.com
AlwaysConnectedAnywhere.com
AlwaysCruiseWithme.com
AlwaysGrindingApparel.com
AlwaysInBloomFlorist.com
AlwaysNewArrival.com
AlwaysNutraVentures.com
AlwaysRing.com
AlwaysYellow.com
AlwazIrOliveoil.com
AlweSamSec.com
AlxJewelry.com
AlxanderKingsFirm.com
Alxqt.com
AlxxaMusic.com
AlyFaSh.com
AlyUwOn.com
AlyandTig.com
AlyatekteksTil.com
Alypc.com
AlysonFreeman.com
AlyssaTran.com
Alz-Cannabis.com
AlzAmorAyCarballo.com
AlzCanna.com
AlzCannabis.com
AlzCannabisAssociation.com
AlzCannabisCollective.com
AlzNatural.com
AlzabUx.com
AlzaiToonGroup.com
AlzheimerCareSolutions.com
AlzheimersCentral.com
Am-Bet.com
AmApemBePromotions.com
AmAravaTiRealestateServices.com
AmAttics.com
AmBidEx-Training.com
AmCorporaCion.com
AmFashionStuff.com
AmFergusonSpecials.com
AmGlobalWorld.com
AmHarry.com
AmIllionDollarDeal.com
AmIllionDollarEvent.com
AmIllionDollarParty.com
AmIllionDollarShow.com
AmIllionDollarWedding.com
AmIllionDollarWeddings.com
AmIntHI.com
AmLegate.com
AmLocOr.com
AmMarHassan.com
AmMariGroup.com
AmMesCA.com
AmNoamNo.com
AmPeorI.com
AmPlleCap.com
AmProperTi.com
AmRendRasKumar.com
AmRicks.com
AmZShoppers.com
AmZhou.com
AmZoneIn.com
Ama-Sale.com
AmaRencontre.com
Amablc.com
AmacDaniel.com
Amadeus-France-Service.com
Amadeus-France-Services.com
AmadeusFranceService.com
AmadeusFranceServices.com
AmadeusSalon.com
Amaeeser.com
AmaizAFitness.com
Amakoms.com
AmakpaJa.com
AmakuFoundation.com
AmalfiElegantRent.com
AmaliaBoier.com
AmamaeQueFez.com
AmanKitchen.com
AmanPalestine.com
AmanaHUniform.com
AmanaTV.com
AmandaAndthewumbyflappy.com
AmandaBarriosMata.com
AmandaCLindsey.com
AmandaGrapes.com
AmandaInTexas.com
AmandaJayCareers.com
AmandaMary.com
AmandaMjOnesArt.com
AmandaNaito.com
AmandaOutMan.com
AmandaWaldRop.com
AmandasLove.com
AmaniRose.com
AmaniTore.com
AmansCuttingboard.com
AmanwedSpav.com
Amar-Ltd.com
AmarHomeOHealers.com
AmarResdeamorbrujeriayregresosendias.com
AmarReshechizosritosybrujeriahoymismo.com
AmarRessuerteyprosperidad.com
AmarRoadLines.com
AmarRyanGel.com
AmaranthCo.com
AmaravathiMatrimony.com
AmariChiClothing.com
AmarilloLiveGreat.com
AmarisHotelKarawang.com
AmaroJournal.com
AmarresgarantizadosdulceMaria.com
AmatAh.com
AmatIgota.com
AmatUresPages.com
AmateurBritishGrannies.com
AmateurPornWeb.com
AmateurZooPorn.com
AmathsGrad.com
AmaxonMes.com
AmazGain.com
AmazeBiz.com
AmazeResearch.com
AmazedNaMused.com
AmazeingAcres.com
AmazenRecords.com
AmazigHCarpet.com
AmazingAdoptionAdventure.com
AmazingBootys.com
AmazingChumphon.com
AmazingHsr.com
AmazingLeslie.com
AmazingMarkerZ.com
AmazingOfRoom.com
AmazingPeterShop.com
AmazingWallWords.com
AmazingYouFund.com
AmazinglyBeautifulIncrediblyRebellious.com
Amazon-Offer-Net.com
Amazon-Service-Infe.com
Amazon-Service-Infs.com
AmazonAddicted.com
AmazonAustraliaSite.com
AmazonCareersNyc.com
AmazonDeliverPro.com
AmazonEgitim.com
AmazonProDeliver.com
AmazonProductsPhotography.com
AmazonRichest.com
AmazonWest.com
AmazonYaty.com
AmazoniaBiotech.com
AmazzEy.com
Amb-Entertainment.com
AmbRozeStudio.com
AmbalaJbayisi.com
AmbarCodesign.com
AmberBartoLo.com
AmberLifestyleGroup.com
AmberZial.com
Ambetop.com
AmbgyTrade.com
AmbianceFrazier.com
AmbientAccents.com
AmbientSilencer.com
AmbitiousEmploye.com
AmbraeMarco.com
AmbrosUd.com
Ambrosia-Celebrations.com
AmbrosiaAlchemy.com
AmbrosiaCaterersLlc.com
Ambulances-CarLier.com
Ambulances-ValCq-Tourcoing.com
AmbushBoats.com
AmdGraphicsDepot.com
AmeaDd.com
AmeaDoRsAgency.com
Amecta.com
AmelIons.com
AmeliaGaughan.com
AmeliaMarieDE.com
AmenI-web.com
AmenitySearch.com
AmerECycling.com
AmerExUruguay.com
AmerIHelpProperties.com
AmerIHelpServices.com
AmerIcLeanLlc.com
AmerIhelppropertymgt.com
AmerIkapeDia.com
AmerTuri.com
AmerUi.com
AmericaDownSouth.com
AmericaFirstNationalbank.com
AmericaGoingGreen.com
AmericaGora.com
AmericaHerUvim.com
AmericaReatFieldPointe.com
AmericaSnextBomber.com
American-Accident-HelpLine.com
AmericanA-Clock.com
AmericanAcLock.com
AmericanAccidentHelpLine.com
AmericanAffiliatedEnterprises.com
AmericanCarmanufacturer.com
AmericanDentalEquipmentAndSupply.com
AmericanDesertMagazine.com
AmericanExperienceProject.com
AmericanFinanceJobs.com
AmericanGenryu.com
AmericanGraffitiTattoosAc.com
AmericanHeroesSmokehouse.com
AmericanHouseInvestments.com
AmericanJudgmentRecoveryService.com
AmericanMadeSoftware.com
AmericanMethLabCleanup.com
AmericanMuscleCreamery.com
AmericanRegionalDesserts.com
AmericanShalePlay.com
AmericanShalePlays.com
AmericanStandardHomeProtection.com
AmericanTopnews.com
AmericanoCannabis.com
AmericanoPCenter.com
AmericasBestCheckingaccount.com
AmericasBestPrepaidCard.com
AmericasTechSummit.com
AmericasUnofficialAmbassadors.com
Americasing.com
AmesburyFlorist.com
AmessagefromnelsonRivers.com
AmestAku.com
AmethystCom.com
AmeyawedsbabIta.com
AmeysGarageInc.com
AmfLogisticsMe.com
AmfuZion.com
Amg-Refinery.com
AmgDetail.com
AmgmedIcalSolutions.com
AmhPeru.com
Amhesq.com
Amhre.com
AmiMean.com
AmiaNdGuruMi.com
AmiasCandles.com
Amibio-Tech.com
AmicosaCo.com
AmieIreneWinters.com
AmiesDeParis.com
AmigasConderechoaroce.com
AmigoBuilders.com
AmigoCrafts.com
AmigosPaletEros.com
AmiiboFigures.com
AmijoIas.com
AmilBetim.com
AmilContagem.com
AmilJuizdefora.com
AmilUberaba.com
AmilaNapolis.com
AminCompany.com
AminHaFinaNca.com
AminHavaga.com
AminWatch.com
AminaMoonApparel.com
AmineCargo.com
AmineKaroUachPro.com
AminoKurozU.com
Amir-NuMeriQue.com
AmirAdas.com
AmirIcana.com
AmirLiAquaT.com
AmirTestsSl.com
AmiraCrawford.com
AmiraJensen.com
Amire-Shop.com
AmisDuLIban-Toulouse.com
AmishCleaningTonic.com
AmistadCup.com
AmitWedStarUna.com
AmkoCasters.com
Amkutech.com
Amkyqp.com
Amlasf.com
AmmaMarathon.com
Ammabee.com
AmmanEngineeringLaboratories.com
AmmiDigital.com
AmnioGro.com
AmoKimono.com
AmoelrOsa.com
AmonSale.com
AmonTLender.com
Among-Ocean.com
Amopd.com
AmorAndia.com
AmorEpErectUnion.com
AmorPorLaVida.com
AmoraZen.com
AmoresVida.com
AmosPrevention.com
AmosRose.com
AmosaNetwork.com
AmostRaFree.com
AmoundOfMoney.com
AmourFk.com
AmourKDo.com
AmpDigitalEducation.com
AmparosPlace.com
Ampcl.com
AmpeMediaPublishing.com
Ampeb.com
AmpelAromatic.com
AmperReviews.com
AmphibianAutomobile.com
AmphibiousBike.com
AmpleCanvas.com
AmpleLifeinsurance.com
AmplifyYourServices.com
AmploStudioDesign.com
Amqud.com
AmriSoulAiMane.com
AmrvlvR.com
Ams-Staffing.com
Ams-Usmc-Tracking.com
Amsbqp.com
AmsiapTiGlobal.com
Amsji.com
Amsotp.com
Amsterdam-GuideService.com
AmsterdamWorldJazzCity.com
Amsvo.com
AmtbAll.com
Amtdf.com
AmterbiyecIsi.com
AmtycQp.com
AmuaSam.com
AmuletBullmastiffs.com
AmundsenScott.com
Amuse-Studio.com
AmusingSocks.com
Amx-so.com
Amxix.com
Amy-Campos.com
AmyAcheson.com
AmyChouUsa.com
AmyClaypool.com
AmyCollier.com
AmySeymour-RoyalLepageAtlantic.com
AmyWayCenter.com
AmyWeed.com
Amyjz.com
AmylehFeldt.com
Amynei.com
AmysFavoriteThings.com
AmysFoodTruck.com
AmysNextRep.com
AmysWallStickerWorld.com
AmzPorn.com
Amzn-Bank.com
AmznsTr.com
An-Ce.com
An-ValUa.com
An-naBk.com
An-vaLoua.com
AnAmericanBaby.com
AnApprenticeAnswers-RiverIsland.com
AnAreKlamajAnsi.com